<NUMBER OF NODES> 6
<NUMBER OF ACTIVITIES> 2
<NUMBER OF TYPES> 1
<NUMBER OF STEPS> 16
<START TIME> 5
<END TIME> 21
<HOME LOCATION> 0
<END OF METADATA>


~	Node	Start time	End time	Type 	Reward;
5 7 15 -1 320;
5 7 16 -1 360;
5 7 17 -1 400;
5 7 18 -1 440;
5 8 16 -1 320;
5 8 17 -1 360;
5 8 18 -1 400;
5 8 19 -1 440;
5 9 17 -1 320;
5 9 18 -1 360;
5 9 19 -1 400;
5 9 20 -1 440;
2 8 10 0 200;
2 9 11 0 200;
2 10 12 0 200;
2 11 13 0 200;
2 12 14 0 200;
2 13 15 0 200;
2 14 16 0 200;
2 15 17 0 200;
2 16 18 0 200;
2 17 19 0 200;
2 18 20 0 200;
