<NUMBER OF NODES> 6
<FIRST THRU NODE> 0
<NUMBER OF LINKS> 14
<NUMBER OF STEPS> 32
<START TIME> 5
<END TIME> 21
<END OF METADATA>


~	Init node 	Term node 	Weights;
0 1 5 7 10 12 15 15 15 15 15 12 10 7 5 5 5 5 5 5 5 5 5 5 5 5 5 5 5 5 5 5 5 5;
1 0 5 5 5 5 5 5 5 5 5 5 5 5 5 5 5 5 5 5 5 7 10 12 15 15 15 15 15 12 10 7 5 5;
1 2 5 7 10 12 15 15 15 15 15 12 10 7 5 5 5 5 5 5 5 5 5 5 5 5 5 5 5 5 5 5 5 5;
2 1 5 5 5 5 5 5 5 5 5 5 5 5 5 5 5 5 5 5 5 7 10 12 15 15 15 15 15 12 10 7 5 5;
0 3 5 6 7 8 10 10 10 10 10 8 7 6 5 5 5 5 5 5 5 5 5 5 5 5 5 5 5 5 5 5 5 5;
3 0 5 5 5 5 5 5 5 5 5 5 5 5 5 5 5 5 5 5 5 6 7 8 10 10 10 10 10 8 7 6 5 5;
1 4 5 6 7 8 10 10 10 10 10 8 7 6 5 5 5 5 5 5 5 6 7 8 10 10 10 10 10 8 7 6 5 5;
4 1 5 6 7 8 10 10 10 10 10 8 7 6 5 5 5 5 5 5 5 6 7 8 10 10 10 10 10 8 7 6 5 5;
2 5 5 7 10 12 15 15 15 15 15 12 10 7 5 5 5 5 5 5 5 5 5 5 5 5 5 5 5 5 5 5 5 5;
5 2 5 5 5 5 5 5 5 5 5 5 5 5 5 5 5 5 5 5 5 7 10 12 15 15 15 15 15 12 10 7 5 5;
3 4 5 6 7 8 10 10 10 10 10 8 7 6 5 5 5 5 5 5 5 5 5 5 5 5 5 5 5 5 5 5 5 5;
4 3 5 5 5 5 5 5 5 5 5 5 5 5 5 5 5 5 5 5 5 6 7 8 10 10 10 10 10 8 7 6 5 5;
4 5 5 6 7 8 10 10 10 10 10 8 7 6 5 5 5 5 5 5 5 5 5 5 5 5 5 5 5 5 5 5 5 5;
5 4 5 5 5 5 5 5 5 5 5 5 5 5 5 5 5 5 5 5 5 6 7 8 10 10 10 10 10 8 7 6 5 5;
